data_dmc_v1-triazole_ch3_v2-4c_1Zn_Ch_ntn_edge_oxalic_edge_BOND_CHECK_FAILED
_audit_creation_date              2025-09-17
_audit_creation_method            'tobacco_3.0'
_symmetry_space_group_name_H-M    'P1'
_symmetry_Int_Tables_number       1
_symmetry_cell_setting            triclinic
loop_
_symmetry_equiv_pos_as_xyz
  x,y,z
_cell_length_a                    8.775462411472557
_cell_length_b                    7.638379895281829
_cell_length_c                    13.038300106641938
_cell_angle_alpha                 90.00067689462902
_cell_angle_beta                  131.32259152861363
_cell_angle_gamma                 90.00194815815456
loop_
_atom_site_label
_atom_site_type_symbol
_atom_site_fract_x
_atom_site_fract_y
_atom_site_fract_z
C1         C    0.4721728734    0.8179387864    0.9020414384
C2         C    0.2517876411    0.8120470924    0.7839700770
N3         N    0.1496946653    0.8998199649    0.6687665715
N4         N    0.9484118772    0.8542785806    0.5877435784
C5         C    0.9327674922    0.7400756209    0.6554968240
N6         N    0.1193934575    0.7095014545    0.7792898501
H7         H    0.5470990574    0.9090062022    0.8827504854
H8         H    0.5402014474    0.6885216796    0.9217494373
H9         H    0.5022134918    0.8615802820    0.9938806054
H10        H    0.7950508557    0.6780443994    0.6207188285
Zn11      Zn    0.1505756505    0.6129208109    0.9572655785
Zn16      Zn    0.8255532132    0.4464218325    0.2197396943
C21        C    0.5039927111    0.2411076354    0.2748211165
C22        C    0.7243584680    0.2470837392    0.3929297232
N23        N    0.8264298122    0.1593946936    0.5081678276
N24        N    0.0277134725    0.2049338719    0.5891924399
C25        C    0.0433499304    0.3191885248    0.5214623800
N26        N    0.8567339213    0.3497259307    0.3976527246
H27        H    0.4290194627    0.1502433794    0.2941945199
H28        H    0.4740598239    0.1971755308    0.1830928913
H29        H    0.4359114110    0.3705792740    0.2549043324
H30        H    0.1810651468    0.3812317336    0.5562475125
C31        C    0.0039477332    0.3180132049    0.7748891855
C32        C    0.2243314184    0.3121350414    0.8929633391
N33        N    0.3264252818    0.3999197324    0.0081672544
N34        N    0.5277059428    0.3543882462    0.0891931889
C35        C    0.5433482046    0.2401792630    0.0214412541
N36        N    0.3567229209    0.2095914547    0.8976462115
H37        H    0.9290236608    0.4090814725    0.7941783226
H38        H    0.9359110466    0.1885934568    0.7551788222
H39        H    0.9739143433    0.3616459081    0.6830520010
H40        H    0.6810628395    0.1781529188    0.0562215639
Zn41      Zn    0.3255512296    0.1129015730    0.7197367127
Zn46      Zn    0.6505761979    0.9463837269    0.4572690684
C51        C    0.9721372968    0.7412113165    0.4021249160
C52        C    0.7517738300    0.7471844671    0.2840128705
N53        N    0.6497000321    0.6595015351    0.1687665222
N54        N    0.4484200177    0.7050346965    0.0877417145
C55        C    0.4327881502    0.8192797327    0.1554799022
N56        N    0.6194036057    0.8498166992    0.2792950884
H57        H    0.0471063244    0.6503554264    0.3827461554
H58        H    0.0020592980    0.6972702589    0.4938464823
H59        H    0.0402318832    0.8706859155    0.4220563699
H60        H    0.2950766297    0.8813162724    0.1206969076
O91        O    0.7129937325    0.0821356167    0.6262201837
O92        O    0.6077214665    0.1508157206    0.7358658718
C93        C    0.5869229791    0.0798285976    0.6417624680
O94        O    0.2631368818    0.9771518579    0.5507879496
O95        O    0.3684091478    0.9084717540    0.4411422615
C96        C    0.3892076352    0.9794588770    0.5352456653
O67        O    0.0986763254    0.3953227684    0.2294474477
O68        O    0.2039481501    0.4639906055    0.1197990665
C69        C    0.0819510350    0.4720764071    0.1378040921
O70        O    0.8774569602    0.6640197440    0.9475613544
O71        O    0.7721851355    0.5953519069    0.0572097356
C72        C    0.8941822506    0.5872661053    0.0392047100
loop_
_geom_bond_atom_site_label_1
_geom_bond_atom_site_label_2
_geom_bond_distance
_geom_bond_site_symmetry_2
_ccdc_geom_bond_type
C1           C2 1.477       .   S
C1           H7 1.094       .   S
C1           H8 1.094       .   S
C1           H9 1.094       .   S
C2           N3 1.316       .   S
C2           N6 1.369       .   S
N3           N4 1.376       .   S
N4           C5 1.312       .   S
C5           N6 1.361       .   S
C5          H10 1.080       .   S
C21         C22 1.477       .   S
C21         H27 1.094       .   S
C21         H28 1.094       .   S
C21         H29 1.094       .   S
C22         N23 1.316       .   S
C22         N26 1.369       .   S
N23         N24 1.376       .   S
N24         C25 1.312       .   S
C25         N26 1.361       .   S
C25         H30 1.080       .   S
C31         C32 1.477       .   S
C31         H37 1.094       .   S
C31         H38 1.094       .   S
C31         H39 1.094       .   S
C32         N33 1.316       .   S
C32         N36 1.369       .   S
N33         N34 1.376       .   S
N34         C35 1.312       .   S
C35         N36 1.361       .   S
C35         H40 1.080       .   S
C51         C52 1.477       .   S
C51         H57 1.094       .   S
C51         H58 1.094       .   S
C51         H59 1.094       .   S
C52         N53 1.316       .   S
C52         N56 1.369       .   S
N53         N54 1.376       .   S
N54         C55 1.312       .   S
C55         N56 1.361       .   S
C55         H60 1.080       .   S
O67         C69 1.250       .   S
O68         C69 1.240       .   S
C69         C72 1.531       .   S
O70         C72 1.250       .   S
O71         C72 1.240       .   S
O91         C93 1.250       .   S
O92         C93 1.240       .   S
C93         C96 1.531       .   S
O94         C96 1.250       .   S
O95         C96 1.240       .   S
N3          N24 2.487   1_465   S
N4          N23 2.487   1_465   S
N6         Zn11 2.273       .   S
Zn11        N33 2.029       .   S
Zn16        N26 2.272       .   S
N23        Zn46 2.029   1_545   S
N24        Zn41 2.085   1_655   S
N33         N54 2.487   1_556   S
N34         N53 2.487   1_556   S
N36        Zn41 2.272       .   S
Zn41        O92 2.360       .   S
Zn46        N56 2.273       .   S
N53         O71 2.361   1_654   S
