data_image0
_chemical_formula_structural       NCN2CNH3Zn2NCN2CNH3NCN2CNH3Zn2NCN2CNH3O2CO2CO2CO2C
_chemical_formula_sum              "N16 C12 H12 Zn4 O8"
_cell_length_a       8.777302841973894
_cell_length_b       7.6456386639911535
_cell_length_c       13.031155331923694
_cell_angle_alpha    89.99985998655866
_cell_angle_beta     131.32321806267333
_cell_angle_gamma    89.99907661821892

_space_group_name_H-M_alt    "P 1"
_space_group_IT_number       1

loop_
  _space_group_symop_operation_xyz
  'x, y, z'

loop_
  _atom_site_type_symbol
  _atom_site_label
  _atom_site_symmetry_multiplicity
  _atom_site_fract_x
  _atom_site_fract_y
  _atom_site_fract_z
  _atom_site_occupancy
  N   N1        1.0  0.7407317338315195  0.6120351993882098  0.6503342068237582  1.0000
  C   C1        1.0  0.9100107456745528  0.6935644829688936  0.6935345458503164  1.0000
  N   N2        1.0  0.9180369541600361  0.8280028412272853  0.6295597705937405  1.0000
  N   N3        1.0  0.12017467457529148  0.8564155642160692  0.6988282088332125  1.0000
  C   C2        1.0  0.22252107591979617  0.748787625646671  0.8048910127668778  1.0000
  N   N4        1.0  0.0995052648456574  0.6463871723256985  0.8081265787678714  1.0000
  H   H1        1.0  0.6063712143685738  0.6566074975697881  0.5618864620786146  1.0000
  H   H2        1.0  0.7479589583377656  0.48490408368453414  0.6758780300258205  1.0000
  H   H3        1.0  0.3870273770219767  0.7400735992759782  0.8805030697231071  1.0000
  Zn  Zn1       1.0  0.2040251133522855  0.5516007028983957  0.9972497207069128  1.0000
  Zn  Zn2       1.0  0.7725149192728268  0.5084543584699165  0.1794133983423855  1.0000
  N   N5        1.0  0.23578844273238006  0.4480159291360395  0.526346070886303  1.0000
  C   C3        1.0  0.06650432687396983  0.3664861026280341  0.4831327391920538  1.0000
  N   N6        1.0  0.05847578803239115  0.23204950891596862  0.5471067754422468  1.0000
  N   N7        1.0  0.8563366979161878  0.2036282665396812  0.477826676925921  1.0000
  C   C4        1.0  0.7539963632676535  0.31125096448098055  0.3717610284538354  1.0000
  N   N8        1.0  0.8770147859310632  0.41365753587324555  0.3685326439921718  1.0000
  H   H4        1.0  0.3701530005104198  0.4034276563909371  0.6147796870795228  1.0000
  H   H5        1.0  0.22855884454247974  0.5751312132741361  0.5007715000694974  1.0000
  H   H6        1.0  0.5894893779852756  0.3199555483576106  0.2961452464246419  1.0000
  N   N9        1.0  0.7352098381366864  0.11103192963059894  0.02621858876489481  1.0000
  C   C5        1.0  0.5661375703997232  0.1930448148156716  0.983176472248638  1.0000
  N   N10       1.0  0.5582283945872876  0.32767448390432957  0.04708439497995696  1.0000
  N   N11       1.0  0.3560598148400357  0.3567359204603293  0.9775317487197741  1.0000
  C   C6        1.0  0.2535842304951346  0.24889895026419578  0.8715916294455268  1.0000
  N   N12       1.0  0.3765881995862717  0.14610270667860525  0.8685579965609056  1.0000
  H   H7        1.0  0.8698232961740748  0.15537577895107108  0.11453581273077615  1.0000
  H   H8        1.0  0.7276970383261723  0.9835121041178807  0.0012628865771930234  1.0000
  H   H9        1.0  0.08903054650661324  0.24022816440838587  0.7959207201721532  1.0000
  Zn  Zn3       1.0  0.2725095901602536  0.051222428702343274  0.679504676085527  1.0000
  Zn  Zn4       1.0  0.7040042734517857  0.00882589336843087  0.49715210195767323  1.0000
  N   N13       1.0  0.241332351643703  0.949010241122441  0.15045059584885864  1.0000
  C   C7        1.0  0.41040115362444796  0.8669949255083587  0.1934916404318023  1.0000
  N   N14       1.0  0.418312625514941  0.7323663671885235  0.12958333032831773  1.0000
  N   N15       1.0  0.6204807113937179  0.7033099872200324  0.19913339724419787  1.0000
  C   C8        1.0  0.7229568797784929  0.8111470060940704  0.30507334072372955  1.0000
  N   N16       1.0  0.5999514683438111  0.9139349394195796  0.30811115607065803  1.0000
  H   H10       1.0  0.10671377819540656  0.9046709550091595  0.062136931707512194  1.0000
  H   H11       1.0  0.24885956557708797  0.07654601586142817  0.17538891424600475  1.0000
  H   H12       1.0  0.8875111893462238  0.8198187432584604  0.380732714637191  1.0000
  O   O1        1.0  0.6670658767270136  0.17472719328911315  0.6131439774453564  1.0000
  O   O2        1.0  0.5099964048635713  0.1837949659953196  0.6976228392194042  1.0000
  C   C9        1.0  0.546199968431314  0.11513102263059836  0.6270310430661715  1.0000
  O   O3        1.0  0.3094117790111354  0.8853175606941512  0.5634920023552208  1.0000
  O   O4        1.0  0.46649966951074884  0.8762426514699264  0.47902445605858734  1.0000
  C   C10       1.0  0.4302865956480023  0.9449063430529316  0.5496115389659982  1.0000
  O   O5        1.0  0.010277621376944586  0.37624974218013724  0.1976927847910742  1.0000
  O   O6        1.0  0.1678125658614953  0.38584428458803954  0.11354636017281333  1.0000
  C   C11       1.0  0.046493239169840966  0.44505576077094655  0.12716539653117362  1.0000
  O   O7        1.0  0.966261858765356  0.6837975195790196  0.9789679384481748  1.0000
  O   O8        1.0  0.8087129265191069  0.6741896997081857  0.06310282274779158  1.0000
  C   C12       1.0  0.9300363953804716  0.614981302123216  0.049488669857239806  1.0000
