data_image0
_chemical_formula_structural       CN2CNH2Zn2CN2CNH2CN2CNH2Zn2CN2CNH2O2CO2CO2CO2C
_chemical_formula_sum              "C12 N12 H8 Zn4 O8"
_cell_length_a       8.776094349975121
_cell_length_b       7.641372416033901
_cell_length_c       13.03575354951672
_cell_angle_alpha    90.0002547644479
_cell_angle_beta     131.31231546005702
_cell_angle_gamma    89.99929534437084

_space_group_name_H-M_alt    "P 1"
_space_group_IT_number       1

loop_
  _space_group_symop_operation_xyz
  'x, y, z'

loop_
  _atom_site_type_symbol
  _atom_site_label
  _atom_site_symmetry_multiplicity
  _atom_site_fract_x
  _atom_site_fract_y
  _atom_site_fract_z
  _atom_site_occupancy
  C   C1        1.0  0.2407147392732301  0.7411487411023744  0.8061274735519969  1.0000
  N   N1        1.0  0.13465560986751196  0.8487538549160216  0.698395007196885  1.0000
  N   N2        1.0  0.9415960751646423  0.8492824498034833  0.6498971707632536  1.0000
  C   C2        1.0  0.9387745225578883  0.7414631859606431  0.7294021793327017  1.0000
  N   N3        1.0  0.12320426196221167  0.6708781704138234  0.8286584933914155  1.0000
  H   H1        1.0  0.40149536500907423  0.7148579696660631  0.8669437662377745  1.0000
  H   H2        1.0  0.8054007431314189  0.7119771441780243  0.716102750786525  1.0000
  Zn  Zn1       1.0  0.20675052440194516  0.552678111724163  0.006045635286159756  1.0000
  Zn  Zn2       1.0  0.7690293776379534  0.5066522502517378  0.17060235491284287  1.0000
  C   C3        1.0  0.7350519250910904  0.3181824405110709  0.3705010739643044  1.0000
  N   N4        1.0  0.8411189351530028  0.2105894474279608  0.47824140312835056  1.0000
  N   N5        1.0  0.03418061753011442  0.21005982148522476  0.526741494178206  1.0000
  C   C4        1.0  0.03699972836203367  0.3178700848626965  0.44723089258069615  1.0000
  N   N6        1.0  0.8525612119545972  0.38843564271103875  0.3479627536009061  1.0000
  H   H3        1.0  0.5742721731925893  0.34446985154924875  0.30969250455262665  1.0000
  H   H4        1.0  0.17037272367244888  0.3473646426216248  0.4605332988002097  1.0000
  C   C5        1.0  0.23485469427932054  0.24118636549549932  0.8704117258542027  1.0000
  N   N7        1.0  0.34088689342540196  0.34869807599374325  0.9782068909549825  1.0000
  N   N8        1.0  0.5339940870029403  0.3492207114507694  0.026803058822321407  1.0000
  C   C6        1.0  0.5368829619609244  0.24159174600460417  0.9472477519063859  1.0000
  N   N9        1.0  0.35248798888398336  0.17093069990982485  0.8479634064754918  1.0000
  H   H5        1.0  0.07407150666139542  0.21482973550729328  0.809592394713898  1.0000
  H   H6        1.0  0.670474671901393  0.21231414485749286  0.9607470703170682  1.0000
  Zn  Zn3       1.0  0.2690781399953735  0.05266928046419695  0.6705955652608822  1.0000
  Zn  Zn4       1.0  0.7067106650861551  0.006668016172378444  0.5060426200324836  1.0000
  C   C7        1.0  0.7409233410061001  0.818152717961374  0.3062231292814686  1.0000
  N   N10       1.0  0.6348894755695677  0.7106396582902128  0.19842736284601226  1.0000
  N   N11       1.0  0.4417796224068862  0.7101175599268916  0.1498296160792577  1.0000
  C   C8        1.0  0.4388942283364009  0.8177458247770876  0.2293871369128568  1.0000
  N   N12       1.0  0.6232881899394277  0.8884099892713033  0.32866918294714925  1.0000
  H   H7        1.0  0.9017062592772787  0.8445099848218564  0.36704577665662635  1.0000
  H   H8        1.0  0.3053126519684213  0.8470242562236592  0.21589640754348613  1.0000
  O   O1        1.0  0.2762361685282652  0.9054917583769836  0.5335981286071769  1.0000
  O   O2        1.0  0.4519698761374663  0.8999612556669618  0.4620577831786644  1.0000
  C   C9        1.0  0.4152976696660114  0.9561227823423128  0.5354998482872815  1.0000
  O   O3        1.0  0.6995671228283853  0.15385873090306057  0.6430668411525337  1.0000
  O   O4        1.0  0.5238364169966951  0.1593701428821492  0.714592193472885  1.0000
  C   C10       1.0  0.5604907401151024  0.10320721253892273  0.6411400740606734  1.0000
  O   O5        1.0  0.0235625856447903  0.39983235660641053  0.21440288079130151  1.0000
  O   O6        1.0  0.19945678078014148  0.4054467247183974  0.1429567206147112  1.0000
  C   C11       1.0  0.060428850106093224  0.45609437285373516  0.14109468274697318  1.0000
  O   O7        1.0  0.9522206347538509  0.6594817270500373  0.9622383588930281  1.0000
  O   O8        1.0  0.7763124477380094  0.6538839417491087  0.03365656561790508  1.0000
  C   C12       1.0  0.9154008551047628  0.6032537362608498  0.035581994654189424  1.0000
