data_dmc_v1-molecule_v2-4c_1Zn_Ch_ntn_edge_oxalic_edge_BOND_CHECK_FAILED
_audit_creation_date              2025-08-07
_audit_creation_method            'tobacco_3.0'
_symmetry_space_group_name_H-M    'P1'
_symmetry_Int_Tables_number       1
_symmetry_cell_setting            triclinic
loop_
_symmetry_equiv_pos_as_xyz
  x,y,z
_cell_length_a                    8.776094349975121
_cell_length_b                    7.641372416033901
_cell_length_c                    13.03575354951672
_cell_angle_alpha                 90.0002547644479
_cell_angle_beta                  131.31231546005702
_cell_angle_gamma                 89.99929534437085
loop_
_atom_site_label
_atom_site_type_symbol
_atom_site_fract_x
_atom_site_fract_y
_atom_site_fract_z
C1         C    0.2504072681    0.8118124789    0.7834252692
N2         N    0.1497407528    0.8997975873    0.6688144469
N3         N    0.9483382626    0.8542469021    0.5877145346
C4         C    0.9327262245    0.7400037194    0.6554903440
N5         N    0.1194209845    0.7095555107    0.7792710186
H6         H    0.4118157889    0.8172983694    0.8691708670
H7         H    0.7950552896    0.6778966776    0.6207681907
Zn8       Zn    0.1504575110    0.6129591726    0.9571202967
Zn13      Zn    0.8253241445    0.4464040002    0.2195592240
C18        C    0.7253741816    0.2474185055    0.3931830433
N19        N    0.8260371748    0.1594361784    0.5077948013
N20        N    0.0274404655    0.2049848173    0.5888961631
C21        C    0.0430511866    0.3192481291    0.5211302757
N22        N    0.8563591530    0.3496916709    0.3973464270
H23        H    0.5639648452    0.2419389737    0.3074386307
H24        H    0.1807235308    0.3813537755    0.5558538047
C25        C    0.2253735813    0.3119074516    0.8931890822
N26        N    0.3260389363    0.3999023260    0.0077951120
N27        N    0.5274429569    0.3543521944    0.0888957470
C28        C    0.5430570376    0.2400995669    0.0211251453
N29        N    0.3563621223    0.2096446187    0.8973471826
H30        H    0.0639643731    0.3173902402    0.8074443486
H31        H    0.6807295569    0.1779902499    0.0558492338
Zn32      Zn    0.3253255129    0.1129270645    0.7195620158
Zn37      Zn    0.6504583125    0.9463739586    0.4571210443
C42        C    0.7504023218    0.7475107821    0.2834277372
N43        N    0.6497387670    0.6595380758    0.1688122523
N44        N    0.4483355946    0.7050903791    0.0877131460
C45        C    0.4327255031    0.8193461882    0.1554840619
N46        N    0.6194178343    0.8497812223    0.2792690049
H47        H    0.9118117371    0.7420261319    0.3691717019
H48        H    0.2950534134    0.8814521613    0.1207634323
O79        O    0.4362509632    0.8955835902    0.6697682303
O80        O    0.5415790147    0.8268893623    0.5601390500
C81        C    0.4883805111    0.9327028289    0.6033818293
O82        O    0.5395361883    0.1637193985    0.5069173135
O83        O    0.4342081368    0.2324136264    0.6165464938
C84        C    0.4874066404    0.1266001598    0.5733037145
O55        O    0.9283678195    0.3269575971    0.1140902393
O56        O    0.0336958457    0.3956513841    0.0044616767
C57        C    0.9838470236    0.4329557328    0.0713634872
O58        O    0.0474182650    0.7324055227    0.0625928246
O59        O    0.9420902388    0.6637117357    0.1722213872
C60        C    0.9919390609    0.6264073870    0.1053195766
loop_
_geom_bond_atom_site_label_1
_geom_bond_atom_site_label_2
_geom_bond_distance
_geom_bond_site_symmetry_2
_ccdc_geom_bond_type
C1           N2 1.312       .   S
C1           N5 1.361       .   S
C1           H6 1.080       .   S
N2           N3 1.377       .   S
N3           C4 1.312       .   S
C4           N5 1.361       .   S
C4           H7 1.080       .   S
C18         N19 1.312       .   S
C18         N22 1.361       .   S
C18         H23 1.080       .   S
N19         N20 1.377       .   S
N20         C21 1.312       .   S
C21         N22 1.361       .   S
C21         H24 1.080       .   S
C25         N26 1.312       .   S
C25         N29 1.361       .   S
C25         H30 1.080       .   S
N26         N27 1.377       .   S
N27         C28 1.312       .   S
C28         N29 1.361       .   S
C28         H31 1.080       .   S
C42         N43 1.312       .   S
C42         N46 1.361       .   S
C42         H47 1.080       .   S
N43         N44 1.377       .   S
N44         C45 1.312       .   S
C45         N46 1.361       .   S
C45         H48 1.080       .   S
O55         C57 1.250       .   S
O56         C57 1.240       .   S
C57         C60 1.531       .   S
O58         C60 1.250       .   S
O59         C60 1.240       .   S
O79         C81 1.250       .   S
O80         C81 1.240       .   S
C81         C84 1.531       .   S
O82         C84 1.250       .   S
O83         C84 1.240       .   S
N2          N20 2.490   1_465   S
N3          N19 2.490   1_465   S
N5          Zn8 2.272       .   S
Zn8         N26 2.029       .   S
Zn13        N22 2.271       .   S
N19        Zn37 2.029   1_545   S
N20        Zn32 2.086   1_655   S
N26         N44 2.490   1_556   S
N27         N43 2.490   1_556   S
N29        Zn32 2.271       .   S
Zn32        O79 2.227       .   S
Zn37        N46 2.272       .   S
