data_dmc_v1-triazole_nh2_v2-4c_1Zn_Ch_ntn_edge_oxalic_edge_BOND_CHECK_FAILED
_audit_creation_date              2025-09-17
_audit_creation_method            'tobacco_3.0'
_symmetry_space_group_name_H-M    'P1'
_symmetry_Int_Tables_number       1
_symmetry_cell_setting            triclinic
loop_
_symmetry_equiv_pos_as_xyz
  x,y,z
_cell_length_a                    8.777302841973894
_cell_length_b                    7.6456386639911535
_cell_length_c                    13.031155331923692
_cell_angle_alpha                 89.99985998655866
_cell_angle_beta                  131.32321806267333
_cell_angle_gamma                 89.99907661821892
loop_
_atom_site_label
_atom_site_type_symbol
_atom_site_fract_x
_atom_site_fract_y
_atom_site_fract_z
N1         N    0.7662707649    0.6594797845    0.6169803078
C2         C    0.9318231975    0.7398616381    0.6550623541
N3         N    0.9483063968    0.8540972158    0.5877901641
N4         N    0.1499531256    0.8998784389    0.6688876100
C5         C    0.2503756305    0.8117487058    0.7834332990
N6         N    0.1192404775    0.7096243453    0.7791222259
H7         H    0.6306938216    0.6874186829    0.5234698462
H8         H    0.7624633707    0.5723359894    0.6736191170
H9         H    0.4117254935    0.8169463193    0.8692327279
Zn10      Zn    0.1507719251    0.6133148814    0.9570790810
Zn15      Zn    0.8257465820    0.4467358971    0.2196204307
N20        N    0.2102995168    0.4002362396    0.5595736876
C21        C    0.0447014951    0.3200578229    0.5215750393
N22        N    0.0282179116    0.2058156806    0.5888435762
N23        N    0.8265706764    0.1600358045    0.5077453347
C24        C    0.7261609310    0.2481152775    0.3931788217
N25        N    0.8572831121    0.3503046693    0.3975184198
H26        H    0.3457714194    0.3727715010    0.6532823376
H27        H    0.2139383674    0.4881532877    0.5032579450
H28        H    0.5648530334    0.2427283159    0.3072995859
N29        N    0.7102610789    0.1595735201    0.0596628194
C30        C    0.5447059642    0.2399603471    0.0215775281
N31        N    0.5282201740    0.3542066127    0.0888428113
N32        N    0.3265713266    0.3999889147    0.0077446471
C33        C    0.2261501957    0.3118490826    0.8932054763
N34        N    0.3572883077    0.2097170743    0.8975214999
H35        H    0.8458381471    0.1875172846    0.1531701181
H36        H    0.7140703775    0.0724213613    0.0030293607
H37        H    0.0647993312    0.3170445605    0.8074074235
Zn38      Zn    0.3257525554    0.1132754775    0.7196270750
Zn43      Zn    0.6507783751    0.9467052033    0.4570825749
N48        N    0.2662186509    0.9003384029    0.1170666247
C49        C    0.4318167099    0.8201586394    0.1550613879
N50        N    0.4482998775    0.7059248496    0.0877882135
N51        N    0.6499473659    0.6601391736    0.1688837998
C52        C    0.7503576761    0.7482068977    0.2834534264
N53        N    0.6192356159    0.8503942805    0.2791184517
H54        H    0.1307463424    0.8728822460    0.0233574269
H55        H    0.2625801307    0.9882486542    0.1733858952
H56        H    0.9116659021    0.7428127875    0.3693317888
O87        O    0.6921757325    0.1102032397    0.6089645095
O88        O    0.5868759375    0.1788719568    0.7186316945
C89        C    0.5749901184    0.0960894195    0.6317621738
O90        O    0.2843588226    0.9497792867    0.5677478742
O91        O    0.3896586176    0.8811105696    0.4580806892
C92        C    0.4015444367    0.9638931069    0.5449502099
O63        O    0.0667438474    0.3633583294    0.2046658133
O64        O    0.1720429428    0.4320284729    0.0949988626
C65        C    0.0636321367    0.4538820818    0.1234594699
O66        O    0.9097788368    0.6966925189    0.9720370521
O67        O    0.8044797414    0.6280223754    0.0817040028
C68        C    0.9128905475    0.6061687665    0.0532433955
loop_
_geom_bond_atom_site_label_1
_geom_bond_atom_site_label_2
_geom_bond_distance
_geom_bond_site_symmetry_2
_ccdc_geom_bond_type
N1           C2 1.335       .   S
N1           H7 1.016       .   S
N1           H8 1.011       .   S
C2           N3 1.311       .   S
C2           N6 1.365       .   S
N3           N4 1.379       .   S
N4           C5 1.312       .   S
C5           N6 1.361       .   S
C5           H9 1.080       .   S
N20         C21 1.335       .   S
N20         H26 1.016       .   S
N20         H27 1.011       .   S
C21         N22 1.311       .   S
C21         N25 1.365       .   S
N22         N23 1.379       .   S
N23         C24 1.312       .   S
C24         N25 1.361       .   S
C24         H28 1.080       .   S
N29         C30 1.335       .   S
N29         H35 1.016       .   S
N29         H36 1.011       .   S
C30         N31 1.311       .   S
C30         N34 1.365       .   S
N31         N32 1.379       .   S
N32         C33 1.312       .   S
C33         N34 1.361       .   S
C33         H37 1.080       .   S
N48         C49 1.335       .   S
N48         H54 1.016       .   S
N48         H55 1.011       .   S
C49         N50 1.311       .   S
C49         N53 1.365       .   S
N50         N51 1.379       .   S
N51         C52 1.312       .   S
C52         N53 1.361       .   S
C52         H56 1.080       .   S
O63         C65 1.250       .   S
O64         C65 1.240       .   S
C65         C68 1.531       .   S
O66         C68 1.250       .   S
O67         C68 1.240       .   S
O87         C89 1.250       .   S
O88         C89 1.240       .   S
C89         C92 1.531       .   S
O90         C92 1.250       .   S
O91         C92 1.240       .   S
N3          N23 2.496   1_465   S
N4          N22 2.496   1_465   S
N6         Zn10 2.269       .   S
Zn10        N32 2.033       .   S
Zn15        N25 2.269       .   S
N22        Zn38 2.085   1_655   S
N23        Zn43 2.033   1_545   S
N31         N51 2.496   1_556   S
N32         N50 2.496   1_556   S
N34        Zn38 2.269       .   S
Zn38        O88 2.355       .   S
Zn43        N53 2.269       .   S
N51         O67 2.286   1_654   S
