data_image0
_chemical_formula_structural       NCN2CH2Zn2NCN2CH2NCN2CH2Zn2NCN2CH2OC2OCOCO2C2OCOCO
_chemical_formula_sum              "N12 C16 H8 Zn4 O8"
_cell_length_a       9.551754801404536
_cell_length_b       7.7367160642372115
_cell_length_c       13.902154133065356
_cell_angle_alpha    90.00185663260588
_cell_angle_beta     134.66775472149135
_cell_angle_gamma    89.99427706267902

_space_group_name_H-M_alt    "P 1"
_space_group_IT_number       1

loop_
  _space_group_symop_operation_xyz
  'x, y, z'

loop_
  _atom_site_type_symbol
  _atom_site_label
  _atom_site_symmetry_multiplicity
  _atom_site_fract_x
  _atom_site_fract_y
  _atom_site_fract_z
  _atom_site_occupancy
  N   N1        1.0  0.11151614718699991  0.6548659138632176  0.7988083039142697  1.0000
  C   C1        1.0  0.22558019998266787  0.73246739508699  0.787122052799886  1.0000
  N   N2        1.0  0.12185027139948464  0.844262329743122  0.6844620800429217  1.0000
  N   N3        1.0  0.9327150663534626  0.8381665487146673  0.6269914419688344  1.0000
  C   C2        1.0  0.9303250363654274  0.7232954086695297  0.6971243549971541  1.0000
  H   H1        1.0  0.3812619905086646  0.7079035146261793  0.8512079710668399  1.0000
  H   H2        1.0  0.8015253958710216  0.684386694805073  0.6759287725974085  1.0000
  Zn  Zn1       1.0  0.22219988881141112  0.5624247205060328  0.9790733062692664  1.0000
  Zn  Zn2       1.0  0.745004588013439  0.4962756997956099  0.19698176089032418  1.0000
  N   N4        1.0  0.855774356193773  0.40339078895542674  0.3770691954839793  1.0000
  C   C3        1.0  0.7421035836534173  0.3262121603256329  0.3892450813655093  1.0000
  N   N5        1.0  0.846151913498741  0.2145101701398614  0.4920109604648645  1.0000
  N   N6        1.0  0.035045058643055696  0.22022786132024258  0.5489578588961799  1.0000
  C   C4        1.0  0.0369442873306351  0.33475045278639787  0.4784230618884474  1.0000
  H   H3        1.0  0.5864339273923833  0.35094052931213665  0.32529022220516174  1.0000
  H   H4        1.0  0.1652418228093554  0.3734091201680116  0.49895661102713196  1.0000
  N   N7        1.0  0.3550489651696352  0.15482991175963584  0.8770892475297075  1.0000
  C   C5        1.0  0.2408209269057983  0.2332706202315823  0.888338726233506  1.0000
  N   N8        1.0  0.3448013303301925  0.34476270629029215  0.9912067429384344  1.0000
  N   N9        1.0  0.5342011594440519  0.33760606938642596  0.04925829335094416  1.0000
  C   C6        1.0  0.5364499253756425  0.22253463726871142  0.9791642640849514  1.0000
  H   H5        1.0  0.08489541052538079  0.20933704047134793  0.8238812532772672  1.0000
  H   H6        1.0  0.665354605379901  0.1828698710184054  0.0007777067246546737  1.0000
  Zn  Zn3       1.0  0.24543943324730685  0.06171140724334814  0.697342098493929  1.0000
  Zn  Zn4       1.0  0.7223898869981279  0.9968983810000532  0.47876712500545315  1.0000
  N   N10       1.0  0.6129593616368312  0.9035229611196353  0.29933107038115514  1.0000
  C   C7        1.0  0.7268754765344793  0.8250659512973625  0.2878125202031147  1.0000
  N   N11       1.0  0.6225052542857926  0.7139843234939416  0.18468433075795143  1.0000
  N   N12       1.0  0.43320328626091353  0.7212556511687123  0.12684608798240837  1.0000
  C   C8        1.0  0.43138089170344074  0.8361014439476592  0.19726360438823445  1.0000
  H   H7        1.0  0.8828956100403618  0.8485359729472156  0.3523183471781034  1.0000
  H   H8        1.0  0.3026758639380833  0.8758050109896233  0.17590804226480813  1.0000
  O   O1        1.0  0.19491440213342695  0.8915439898338893  0.4872758098415141  1.0000
  C   C9        1.0  0.34895830387914817  0.9650858554725696  0.5379649381571787  1.0000
  C   C10       1.0  0.4938171193779826  0.07028000648494181  0.6627606334882286  1.0000
  O   O2        1.0  0.49534308033702484  0.11711686458050619  0.7504810270538631  1.0000
  C   C11       1.0  0.6193308070721197  0.0938541812350785  0.6387752335936652  1.0000
  O   O3        1.0  0.7734992311177397  0.16735107546754985  0.6897302673998804  1.0000
  C   C12       1.0  0.4743645459073821  0.9887867691256015  0.5138718091161206  1.0000
  O   O4        1.0  0.4727175695669772  0.9420963628274938  0.4260697119855911  1.0000
  O   O5        1.0  0.2743238976107009  0.3942136017512726  0.18971805342334136  1.0000
  C   C13       1.0  0.11924358544851783  0.46607236549084685  0.13854739531357718  1.0000
  C   C14       1.0  0.9739285907736711  0.5711752440131789  0.013761692370169776  1.0000
  O   O6        1.0  0.9728049420558846  0.6189776036714323  0.9264044851660879  1.0000
  C   C15       1.0  0.8478258277930167  0.5928713246471421  0.03739236115247126  1.0000
  O   O7        1.0  0.6930328315927586  0.66511519761573  0.9864369965684161  1.0000
  C   C16       1.0  0.9930806033360987  0.48760099954422975  0.1621192933224852  1.0000
  O   O8        1.0  0.9943038859716571  0.43953524554823564  0.24947580735695316  1.0000
