data_dmc_v1-3c_pyrrole_Ch_v2-4c_1Zn_Ch_ntn_edge_squOxa_ch_BOND_CHECK_FAILED
_audit_creation_date              2025-06-12
_audit_creation_method            'tobacco_3.0'
_symmetry_space_group_name_H-M    'P1'
_symmetry_Int_Tables_number       1
_symmetry_cell_setting            triclinic
loop_
_symmetry_equiv_pos_as_xyz
  x,y,z
_cell_length_a                    9.551754801404536
_cell_length_b                    7.736716064237212
_cell_length_c                    13.902154133065356
_cell_angle_alpha                 90.00185663260586
_cell_angle_beta                  134.66775472149135
_cell_angle_gamma                 89.99427706267902
loop_
_atom_site_label
_atom_site_type_symbol
_atom_site_fract_x
_atom_site_fract_y
_atom_site_fract_z
N1         N    0.1230266166    0.7092718774    0.7790880017
C2         C    0.2536087816    0.8119156285    0.7912684667
N3         N    0.1465785431    0.9016109251    0.6715028924
N4         N    0.9478948403    0.8527171975    0.5852091060
C5         C    0.9350743449    0.7336040228    0.6529078384
H6         H    0.4282367600    0.8171156992    0.8727634195
H7         H    0.7854370231    0.6686456190    0.6106057478
Zn8       Zn    0.1571866116    0.6178958975    0.9507993478
Zn13      Zn    0.8104370668    0.4427134746    0.2254189158
N18        N    0.8445960430    0.3512070111    0.3970704014
C19        C    0.7140132785    0.2485523708    0.3848824758
N20        N    0.8210405193    0.1588525202    0.5046458692
N21        N    0.0197253895    0.2077435138    0.5909416641
C22        C    0.0325359488    0.3269217681    0.5232702278
H23        H    0.5463576476    0.2115637181    0.2911634676
H24        H    0.1802902289    0.4004732216    0.5688789740
N25        N    0.3446191167    0.2093755855    0.8970799066
C26        C    0.2140288282    0.3120397651    0.8848970126
N27        N    0.3210564070    0.4017461950    0.0046526752
N28        N    0.5197467202    0.3528385917    0.0909428119
C29        C    0.5325738521    0.2337059168    0.0232517811
H30        H    0.0394004896    0.3172505969    0.8034095083
H31        H    0.6822167350    0.1687313009    0.0655526023
Zn32      Zn    0.3104326523    0.1178445984    0.7254246852
Zn37      Zn    0.6571907132    0.9426940053    0.4507960191
N42        N    0.6230004146    0.8512976980    0.2790750218
C43        C    0.7535878305    0.7486317178    0.2912558933
N44        N    0.6465610255    0.6589439450    0.1714926985
N45        N    0.4478717012    0.7078539106    0.0852041909
C46        C    0.4350580144    0.8270315311    0.1528798210
H47        H    0.9212499135    0.7116265260    0.3849702408
H48        H    0.2872987569    0.9005966226    0.1072773234
O81        O    0.2376381520    0.9328700690    0.5613534527
C82        C    0.3579632396    0.9979895395    0.5690547519
C83        C    0.5416948359    0.1045370727    0.6738270444
O84        O    0.5900392960    0.2142469579    0.7521590539
C85        C    0.6215880632    0.0344587657    0.6186636872
O86        O    0.7809615816    0.0084212136    0.6634421360
C87        C    0.4139155722    0.9839176503    0.4910786432
O88        O    0.3265961512    0.9655453876    0.3755224546
O55        O    0.2697769092    0.4954840775    0.1487696736
C56        C    0.1224196064    0.5298508509    0.1195777356
C57        C    0.9132039927    0.5727557727    0.9900074352
O58        O    0.8378169637    0.6517107477    0.8901812114
C59        C    0.8455908735    0.4999221276    0.0527382252
O60        O    0.6990652395    0.4341932460    0.0110563021
C61        C    0.0542369537    0.5185106183    0.1900090507
O62        O    0.1286198321    0.5398307305    0.3024081804
loop_
_geom_bond_atom_site_label_1
_geom_bond_atom_site_label_2
_geom_bond_distance
_geom_bond_site_symmetry_2
_ccdc_geom_bond_type
N1           C5 1.382       .   A
N1           C2 1.385       .   A
C2           N3 1.380       .   A
N3           N4 1.408       .   A
N4           C5 1.383       .   A
H6           C2 1.188       .   S
H7           C5 1.208       .   S
N18         C22 1.382       .   A
N18         C19 1.385       .   A
C19         N20 1.380       .   A
N20         N21 1.408       .   A
N21         C22 1.383       .   A
H23         C19 1.188       .   S
H24         C22 1.208       .   S
N25         C29 1.382       .   A
N25         C26 1.385       .   A
C26         N27 1.380       .   A
N27         N28 1.408       .   A
N28         C29 1.383       .   A
H30         C26 1.188       .   S
H31         C29 1.208       .   S
N42         C46 1.382       .   A
N42         C43 1.385       .   A
C43         N44 1.380       .   A
N44         N45 1.408       .   A
N45         C46 1.383       .   A
H47         C43 1.188       .   S
H48         C46 1.208       .   S
O55         C56 1.189       .   S
C56         C57 1.512       .   S
C56         C59 2.111       .   S
C56         C61 1.512       .   S
C57         O58 1.189       .   S
C57         C59 1.512       .   S
C57         C61 2.111       .   S
C59         O60 1.189       .   S
C59         C61 1.512       .   S
C61         O62 1.189       .   S
O81         C82 1.189       .   S
C82         C83 1.512       .   S
C82         C85 2.111       .   S
C82         C87 1.512       .   S
C83         O84 1.189       .   S
C83         C85 1.512       .   S
C83         C87 2.111       .   S
C85         O86 1.189       .   S
C85         C87 1.512       .   S
C87         O88 1.189       .   S
N1          Zn8 2.282       .   S
N3         Zn32 2.040   1_565   S
N4         Zn37 2.095   1_455   S
Zn8         N27 2.039       .   S
Zn13        N18 2.282       .   S
N20        Zn37 2.040   1_545   S
N21        Zn32 2.095   1_655   S
N25        Zn32 2.282       .   S
N27         O55 2.482       .   S
Zn32        O81 2.346       .   S
Zn37        N42 2.282       .   S
